models/IEEE_8500_Bus-G/em1/Branches.dss
New "Line.hvmv_sub_connector" bus1=_hvmv_sub_lsb bus2=hvmv_sub_48332 length=0.001 units=none r1=0.001 r0=0.001 x1=0.01 x0=0.01 C1=0 C0=0
New "Line.ln5710794-3" bus1=hvmv_sub_48332 bus2=d5710794-3_int length=0.01943604 units=km linecode=3PH_H-397_ACSR397_ACSR397_ACSR397_ACSR Seasons=1 Ratings=[400,] normamps=0.1 emergamps=20
New "Line.a8735_48332_sw" bus1=d5710794-3_int bus2=e192860 Switch=True r1=1 x1=1 r0=1 x0=1 length=0.001
New "Line.ln5815900-1" bus1=e192860 bus2=m1209817 length=0.01959334 units=km linecode=3PH_H-397_ACSR397_ACSR397_ACSR397_ACSR Seasons=1 Ratings=[400,] normamps=0.1 emergamps=20
New "Line.ln5742828-1" bus1=m1209817 bus2=l2801909 length=0.02525228 units=km linecode=3PH_H-397_ACSR397_ACSR397_ACSR397_ACSR Seasons=1 Ratings=[400,] normamps=0.1 emergamps=20
New "Line.tpx226195333c0" bus1=x2801909c.1.2 bus2=sx2801909c.1.2 linecode=4/0Triplex Seasons=1 Ratings=[400,] normamps=0.1 emergamps=20 length=50 units=ft
New "Line.ln5742828-2" bus1=l2801909 bus2=m1209814 length=0.06927271 units=km linecode=3PH_H-397_ACSR397_ACSR397_ACSR397_ACSR Seasons=1 Ratings=[400,] normamps=0.1 emergamps=20
New "Line.ln5473414-1" bus1=m1209814 bus2=m1209811 length=0.1069487 units=km linecode=3PH_H-397_ACSR397_ACSR397_ACSR397_ACSR Seasons=1 Ratings=[400,] normamps=0.1 emergamps=20
New "Line.ln5714974-1" bus1=m1209811 bus2=m1209807 length=0.1226045 units=km linecode=3PH_H-397_ACSR397_ACSR397_ACSR397_ACSR Seasons=1 Ratings=[400,] normamps=0.1 emergamps=20
New "Line.ln5896798-1" bus1=m1209807 bus2=m1209805 length=0.04415994 units=km linecode=3PH_H-397_ACSR397_ACSR397_ACSR397_ACSR Seasons=1 Ratings=[400,] normamps=0.1 emergamps=20
New "Line.ln5775442-1" bus1=m1209805 bus2=l2823592 length=0.1055602 units=km linecode=3PH_H-397_ACSR397_ACSR397_ACSR2/0_ACSR Seasons=1 Ratings=[400,] normamps=0.1 emergamps=20
New "Line.tpx223658a0" bus1=x2823592a.1.2 bus2=sx2823592a.1.2 linecode=4/0Triplex Seasons=1 Ratings=[400,] normamps=0.1 emergamps=20 length=50 units=ft
New "Line.cap_1c" bus1=l2823592.3 bus2=l2823592_cap.3 length=0.001 units=none r1=1 r0=1 x1=1 x0=1 C1=0 C0=0 phases=1
New "Line.ln5513564-2" bus1=l2823592_cap bus2=r20185 length=0.0451087 units=km linecode=3PH_H-397_ACSR397_ACSR397_ACSR2/0_ACSR Seasons=1 Ratings=[400,] normamps=0.1 emergamps=20
New "Line.ln5513564-1" bus1=r20185 bus2=d5513564-1_int length=0.02128046 units=km linecode=3PH_H-397_ACSR397_ACSR397_ACSR2/0_ACSR Seasons=1 Ratings=[400,] normamps=0.1 emergamps=20
New "Line.xj171_48332_sw" bus1=d5513564-1_int bus2=e192201 r1=1 x1=1 r0=1 x0=1 length=0.001
New "Line.ln6321409-1" bus1=e192201 bus2=m1209800 length=0.05568214 units=km linecode=3PH_H-397_ACSR397_ACSR397_ACSR2/0_ACSR Seasons=1 Ratings=[400,] normamps=0.1 emergamps=20
New "Line.ln5958865-1" bus1=m1209800.3 bus2=p829957.3 length=0.01008982 units=km linecode=1PH-xx4_ACSR4_ACSR Seasons=1 Ratings=[400,] normamps=0.1 emergamps=20
New "Line.ln5746703-1" bus1=p829957.3 bus2=l3160863.3 length=0.1649481 units=km linecode=1PH-xx4_ACSR4_ACSR Seasons=1 Ratings=[400,] normamps=0.1 emergamps=20
New "Line.tpx223660c0" bus1=x3160863c.1.2 bus2=sx3160863c.1.2 linecode=4/0Triplex Seasons=1 Ratings=[400,] normamps=0.1 emergamps=20 length=50 units=ft
New "Line.ln6201670-1" bus1=l3160863.3 bus2=l2730108.3 length=0.3107603 units=km linecode=1PH-xx4_ACSR4_ACSR Seasons=1 Ratings=[400,] normamps=0.1 emergamps=20
New "Line.tpx223661c0" bus1=x2730108c.1.2 bus2=sx2730108c.1.2 linecode=4/0Triplex Seasons=1 Ratings=[400,] normamps=0.1 emergamps=20 length=50 units=ft
New "Line.ln5896731-1" bus1=l2730108.3 bus2=l2786204.3 length=0.08435868 units=km linecode=1PH-xx4_ACSR4_ACSR Seasons=1 Ratings=[400,] normamps=0.1 emergamps=20
New "Line.tpx223662c0" bus1=x2786204c.1.2 bus2=sx2786204c.1.2 linecode=4/0Triplex Seasons=1 Ratings=[400,] normamps=0.1 emergamps=20 length=50 units=ft
New "Line.ln5589094-1" bus1=l2786204.3 bus2=m1209819.3 length=0.07204356 units=km linecode=1PH-xx4_ACSR4_ACSR Seasons=1 Ratings=[400,] normamps=0.1 emergamps=20
New "Line.ln5952392-1" bus1=m1209819.3 bus2=l2936216.3 length=0.04997574 units=km linecode=1PH-xx4_ACSR4_ACSR Seasons=1 Ratings=[400,] normamps=0.1 emergamps=20
New "Line.tpx223663c0" bus1=x2936216c.1.2 bus2=sx2936216c.1.2 linecode=4/0Triplex Seasons=1 Ratings=[400,] normamps=0.1 emergamps=20 length=50 units=ft
New "Line.ln5473351-1" bus1=l2936216.3 bus2=226-23745.3 length=0.09365654 units=km linecode=1PH-xx4_ACSR4_ACSR Seasons=1 Ratings=[400,] normamps=0.1 emergamps=20
New "Line.ln6109068-1" bus1=226-23745.3 bus2=m1209822.3 length=0.5210015 units=km linecode=1PH-xx4_ACSR4_ACSR Seasons=1 Ratings=[400,] normamps=0.1 emergamps=20
New "Line.ln5866186-1" bus1=m1209822.3 bus2=l2992556.3 length=0.1030785 units=km linecode=1PH-xx4_ACSR4_WPAL Seasons=1 Ratings=[400,] normamps=0.1 emergamps=20
New "Line.tpx346639c0" bus1=x2992556c.1.2 bus2=sx2992556c.1.2 linecode=4/0Triplex Seasons=1 Ratings=[400,] normamps=0.1 emergamps=20 length=50 units=ft
New "Line.ln6078692-1" bus1=m1209822.3 bus2=m1209823.3 length=0.05698303 units=km linecode=1PH-xx4_ACSR4_ACSR Seasons=1 Ratings=[400,] normamps=0.1 emergamps=20
New "Line.ln5624291-1" bus1=m1209823.3 bus2=m1209824.3 length=0.09213109 units=km linecode=1PH-xx2_ACSR2_ACSR Seasons=1 Ratings=[400,] normamps=0.1 emergamps=20
New "Line.ln6139544-1" bus1=m1209824.3 bus2=m1209828.3 length=0.251213 units=km linecode=1PH-xx2_ACSR2_ACSR Seasons=1 Ratings=[400,] normamps=0.1 emergamps=20
New "Line.ln5775370-1" bus1=m1209828.3 bus2=l2861157.3 length=0.0736894 units=km linecode=1PH-xx2_ACSR2_ACSR Seasons=1 Ratings=[400,] normamps=0.1 emergamps=20
New "Line.tpx251867c0" bus1=x2861157c.1.2 bus2=sx2861157c.1.2 linecode=4/0Triplex Seasons=1 Ratings=[400,] normamps=0.1 emergamps=20 length=50 units=ft
New "Line.ln5594152-1" bus1=l2861157.3 bus2=p901951.3 length=0.1213488 units=km linecode=1PH-xx2_ACSR2_ACSR Seasons=1 Ratings=[400,] normamps=0.1 emergamps=20
New "Line.ln6078691-1" bus1=p901951.3 bus2=m1186078.3 length=0.1754474 units=km linecode=1PH-xx4_WPAL4_WPAL Seasons=1 Ratings=[400,] normamps=0.1 emergamps=20
New "Line.ln6254100-1" bus1=m1186078.3 bus2=l2806553.3 length=0.08278773 units=km linecode=1PH-xx4_WPAL4_WPAL Seasons=1 Ratings=[400,] normamps=0.1 emergamps=20
New "Line.tpx227411655c0" bus1=x2806553c.1.2 bus2=sx2806553c.1.2 linecode=4/0Triplex Seasons=1 Ratings=[400,] normamps=0.1 emergamps=20 length=50 units=ft
New "Line.ln6435650-1" bus1=l2806553.3 bus2=m1166391.3 length=0.6288935 units=km linecode=1PH-xx4_WPAL4_ACSR Seasons=1 Ratings=[400,] normamps=0.1 emergamps=20
New "Line.ln6200442-1" bus1=m1166391.3 bus2=m1166394.3 length=0.08635289 units=km linecode=1PH-xx4_ACSR4_ACSR Seasons=1 Ratings=[400,] normamps=0.1 emergamps=20
New "Line.ln6230698-1" bus1=m1166394.3 bus2=m1166398.3 length=0.06598021 units=km linecode=1PH-xx4_ACSR4_ACSR Seasons=1 Ratings=[400,] normamps=0.1 emergamps=20
New "Line.ln6048526-1" bus1=m1166398.3 bus2=l3142050.3 length=0.07021555 units=km linecode=1PH-xx4_ACSR4_ACSR Seasons=1 Ratings=[400,] normamps=0.1 emergamps=20
New "Line.tpx251865c0" bus1=x3142050c.1.2 bus2=sx3142050c.1.2 linecode=4/0Triplex Seasons=1 Ratings=[400,] normamps=0.1 emergamps=20 length=50 units=ft
New "Line.ln6048523-1" bus1=m1166391.3 bus2=l3254873.3 length=0.1061747 units=km linecode=1PH-xx4_WPAL4_ACSR Seasons=1 Ratings=[400,] normamps=0.1 emergamps=20
New "Line.tpx251862c0" bus1=x3254873c.1.2 bus2=sx3254873c.1.2 linecode=4/0Triplex Seasons=1 Ratings=[400,] normamps=0.1 emergamps=20 length=50 units=ft
New "Line.ln6381766-1" bus1=l3254873.3 bus2=m1166393.3 length=0.03392068 units=km linecode=1PH-xx4_WPAL4_ACSR Seasons=1 Ratings=[400,] normamps=0.1 emergamps=20
New "Line.ln5894226-3" bus1=m1166393.3 bus2=l2745811.3 length=0.1235777 units=km linecode=1PH-xx2_ACSR2_ACSR Seasons=1 Ratings=[400,] normamps=0.1 emergamps=20
New "Line.tpx251863c0" bus1=x2745811c.1.2 bus2=sx2745811c.1.2 linecode=4/0Triplex Seasons=1 Ratings=[400,] normamps=0.1 emergamps=20 length=50 units=ft
New "Line.ln6228316-5" bus1=l2745811.3 bus2=m4122657.3 length=0.05443497 units=km linecode=1PH-xx2_ACSR2_ACSR Seasons=1 Ratings=[400,] normamps=0.1 emergamps=20
New "Line.ln6258460-3" bus1=m4122657.3 bus2=l3027124.3 length=0.2207834 units=km linecode=1PH-xx2_ACSR2_ACSR Seasons=1 Ratings=[400,] normamps=0.1 emergamps=20
New "Line.tpx226195194c0" bus1=x3027124c.1.2 bus2=sx3027124c.1.2 linecode=4/0Triplex Seasons=1 Ratings=[400,] normamps=0.1 emergamps=20 length=50 units=ft
New "Line.ln5717630-1" bus1=m1166393.3 bus2=m1166395.3 length=0.06564931 units=km linecode=1PH-xx2_ACSR2_ACSR Seasons=1 Ratings=[400,] normamps=0.1 emergamps=20
New "Line.ln6142227-1" bus1=m1166395.3 bus2=m1166396.3 length=0.007736482 units=km linecode=1PH-xx2_ACSR2_ACSR Seasons=1 Ratings=[400,] normamps=0.1 emergamps=20
New "Line.ln6324073-1" bus1=m1166396.3 bus2=m1166399.3 length=0.06722853 units=km linecode=1PH-xx2_ACSR2_ACSR Seasons=1 Ratings=[400,] normamps=0.1 emergamps=20
New "Line.ln6200441-1" bus1=m1166399.3 bus2=l3048890.3 length=0.08355026 units=km linecode=1PH-xx2_ACSR2_ACSR Seasons=1 Ratings=[400,] normamps=0.1 emergamps=20
New "Line.tpx28128517c0" bus1=x3048890c.1.2 bus2=sx3048890c.1.2 linecode=4/0Triplex Seasons=1 Ratings=[400,] normamps=0.1 emergamps=20 length=50 units=ft
New "Line.ln6048525-1" bus1=l3048890.3 bus2=m1166402.3 length=0.06200381 units=km linecode=1PH-xx2_ACSR2_ACSR Seasons=1 Ratings=[400,] normamps=0.1 emergamps=20
New "Line.ln5866187-1" bus1=m1166402.3 bus2=l3048889.3 length=0.09361738 units=km linecode=1PH-xx2_ACSR2_ACSR Seasons=1 Ratings=[400,] normamps=0.1 emergamps=20
New "Line.tpx28128464c0" bus1=x3048889c.1.2 bus2=sx3048889c.1.2 linecode=4/0Triplex Seasons=1 Ratings=[400,] normamps=0.1 emergamps=20 length=50 units=ft
New "Line.ln6137018-1" bus1=l3048889.3 bus2=m1166407.3 length=0.0874712 units=km linecode=1PH-xx2_ACSR2_ACSR Seasons=1 Ratings=[400,] normamps=0.1 emergamps=20
New "Line.ln5985365-1" bus1=m1166407.3 bus2=l2952007.3 length=0.1504957 units=km linecode=1PH-xx4_ACSR4_ACSR Seasons=1 Ratings=[400,] normamps=0.1 emergamps=20
New "Line.tpx251859c0" bus1=x2952007c.1.2 bus2=sx2952007c.1.2 linecode=4/0Triplex Seasons=1 Ratings=[400,] normamps=0.1 emergamps=20 length=50 units=ft
New "Line.ln5894230-1" bus1=l2952007.3 bus2=l2861158.3 length=0.1265465 units=km linecode=1PH-xx4_ACSR4_ACSR Seasons=1 Ratings=[400,] normamps=0.1 emergamps=20
New "Line.tpx251858c0" bus1=x2861158c.1.2 bus2=sx2861158c.1.2 linecode=4/0Triplex Seasons=1 Ratings=[400,] normamps=0.1 emergamps=20 length=50 units=ft
New "Line.ln6318771-1" bus1=m1166407.3 bus2=l3064514.3 length=0.3744775 units=km linecode=1PH-xx4_WPAL4_ACSR Seasons=1 Ratings=[400,] normamps=0.1 emergamps=20
New "Line.tpx251857c0" bus1=x3064514c.1.2 bus2=sx3064514c.1.2 linecode=4/0Triplex Seasons=1 Ratings=[400,] normamps=0.1 emergamps=20 length=50 units=ft
New "Line.ln5591715-1" bus1=l3064514.3 bus2=l3048888.3 length=0.0623332 units=km linecode=1PH-xx4_WPAL4_ACSR Seasons=1 Ratings=[400,] normamps=0.1 emergamps=20
New "Line.tpx251856c0" bus1=x3048888c.1.2 bus2=sx3048888c.1.2 linecode=4/0Triplex Seasons=1 Ratings=[400,] normamps=0.1 emergamps=20 length=50 units=ft
New "Line.ln5591716-1" bus1=l3048888.3 bus2=m1149249.3 length=0.1105654 units=km linecode=1PH-xx4_ACSR4_ACSR Seasons=1 Ratings=[400,] normamps=0.1 emergamps=20
New "Line.ln6258463-1" bus1=m1149249.3 bus2=m1142880.3 length=0.2321886 units=km linecode=1PH-xx4_ACSR4_ACSR Seasons=1 Ratings=[400,] normamps=0.1 emergamps=20
New "Line.ln5803293-1" bus1=m1142880.3 bus2=l2764411.3 length=0.1221468 units=km linecode=1PH-xx4_ACSR4_ACSR Seasons=1 Ratings=[400,] normamps=0.1 emergamps=20
New "Line.tpx226010605c0" bus1=x2764411c.1.2 bus2=sx2764411c.1.2 linecode=4/0Triplex Seasons=1 Ratings=[400,] normamps=0.1 emergamps=20 length=50 units=ft
New "Line.ln5803293-2" bus1=l2764411.3 bus2=l2767343.3 length=0.05492363 units=km linecode=1PH-xx4_ACSR4_ACSR Seasons=1 Ratings=[400,] normamps=0.1 emergamps=20
New "Line.tpx356791c0" bus1=x2767343c.1.2 bus2=sx2767343c.1.2 linecode=4/0Triplex Seasons=1 Ratings=[400,] normamps=0.1 emergamps=20 length=50 units=ft
New "Line.ln6048524-1" bus1=l2767343.3 bus2=l2804957.3 length=0.06749647 units=km linecode=1PH-xx4_ACSR4_ACSR Seasons=1 Ratings=[400,] normamps=0.1 emergamps=20
New "Line.tpx356790c0" bus1=x2804957c.1.2 bus2=sx2804957c.1.2 linecode=4/0Triplex Seasons=1 Ratings=[400,] normamps=0.1 emergamps=20 length=50 units=ft
New "Line.ln5957460-1" bus1=l2804957.3 bus2=l3048937.3 length=0.0596413 units=km linecode=1PH-xx2_ACSR2_ACSR Seasons=1 Ratings=[400,] normamps=0.1 emergamps=20
New "Line.tpx356789c0" bus1=x3048937c.1.2 bus2=sx3048937c.1.2 linecode=4/0Triplex Seasons=1 Ratings=[400,] normamps=0.1 emergamps=20 length=50 units=ft
New "Line.ln5651998-1" bus1=l3048937.3 bus2=l3176661.3 length=0.1081798 units=km linecode=1PH-xx2_ACSR2_ACSR Seasons=1 Ratings=[400,] normamps=0.1 emergamps=20
New "Line.tpx356788c0" bus1=x3176661c.1.2 bus2=sx3176661c.1.2 linecode=4/0Triplex Seasons=1 Ratings=[400,] normamps=0.1 emergamps=20 length=50 units=ft
New "Line.ln6348954-1" bus1=l3176661.3 bus2=l2970804.3 length=0.07703994 units=km linecode=1PH-xx2_ACSR2_ACSR Seasons=1 Ratings=[400,] normamps=0.1 emergamps=20
New "Line.tpx356787c0" bus1=x2970804c.1.2 bus2=sx2970804c.1.2 linecode=4/0Triplex Seasons=1 Ratings=[400,] normamps=0.1 emergamps=20 length=50 units=ft
New "Line.ln5591718-1" bus1=m1142880.3 bus2=l2891575.3 length=0.09891892 units=km linecode=1PH-xx4_ACSR4_ACSR Seasons=1 Ratings=[400,] normamps=0.1 emergamps=20
New "Line.tpx225533423c0" bus1=x2891575c.1.2 bus2=sx2891575c.1.2 linecode=4/0Triplex Seasons=1 Ratings=[400,] normamps=0.1 emergamps=20 length=50 units=ft
New "Line.ln5960126-1" bus1=m1166395.3 bus2=m1166400.3 length=0.08085811 units=km linecode=1PH-xx2_ACSR2_ACSR Seasons=1 Ratings=[400,] normamps=0.1 emergamps=20
New "Line.ln6103754-1" bus1=m1166400.3 bus2=l3179637.3 length=0.07373226 units=km linecode=1PH-xx2_ACSR2_ACSR Seasons=1 Ratings=[400,] normamps=0.1 emergamps=20
New "Line.tpx21386442c0" bus1=x3179637c.1.2 bus2=sx3179637c.1.2 linecode=4/0Triplex Seasons=1 Ratings=[400,] normamps=0.1 emergamps=20 length=50 units=ft
New "Line.ln5873976-1" bus1=m1209828.3 bus2=l3253570.3 length=0.04017243 units=km linecode=1PH-xx2_ACSR2_ACSR Seasons=1 Ratings=[400,] normamps=0.1 emergamps=20
New "Line.tpx228314460c0" bus1=x3253570c.1.2 bus2=sx3253570c.1.2 linecode=4/0Triplex Seasons=1 Ratings=[400,] normamps=0.1 emergamps=20 length=50 units=ft
New "Line.ln6359077-2" bus1=l3253570.3 bus2=l2937757.3 length=0.08870806 units=km linecode=1PH-xx2_ACSR2_ACSR Seasons=1 Ratings=[400,] normamps=0.1 emergamps=20
New "Line.tpx227411650c0" bus1=x2937757c.1.2 bus2=sx2937757c.1.2 linecode=4/0Triplex Seasons=1 Ratings=[400,] normamps=0.1 emergamps=20 length=50 units=ft
New "Line.ln6359077-1" bus1=l2937757.3 bus2=l3067448.3 length=0.08085206 units=km linecode=1PH-xx2_ACSR2_ACSR Seasons=1 Ratings=[400,] normamps=0.1 emergamps=20
New "Line.tpx262075c0" bus1=x3067448c.1.2 bus2=sx3067448c.1.2 linecode=4/0Triplex Seasons=1 Ratings=[400,] normamps=0.1 emergamps=20 length=50 units=ft
New "Line.ln6073916-1" bus1=l3067448.3 bus2=l2763407.3 length=0.2545091 units=km linecode=1PH-xx2_ACSR2_ACSR Seasons=1 Ratings=[400,] normamps=0.1 emergamps=20
New "Line.tpx225906836c0" bus1=x2763407c.1.2 bus2=sx2763407c.1.2 linecode=4/0Triplex Seasons=1 Ratings=[400,] normamps=0.1 emergamps=20 length=50 units=ft
New "Line.ln5654466-1" bus1=m1209800 bus2=m1209797 length=0.07540477 units=km linecode=3PH_H-397_ACSR397_ACSR397_ACSR2/0_ACSR Seasons=1 Ratings=[400,] normamps=0.1 emergamps=20
New "Line.ln6291242-1" bus1=m1209797 bus2=m1209791 length=0.06659976 units=km linecode=3PH_H-397_ACSR397_ACSR397_ACSR2/0_ACSR Seasons=1 Ratings=[400,] normamps=0.1 emergamps=20
New "Line.ln5654472-1" bus1=m1209791 bus2=m1209790 length=0.05524293 units=km linecode=3PH_H-397_ACSR397_ACSR397_ACSR2/0_ACSR Seasons=1 Ratings=[400,] normamps=0.1 emergamps=20
New "Line.ln5594242-1" bus1=m1209790 bus2=m1209788 length=0.0591157 units=km linecode=3PH_H-397_ACSR397_ACSR397_ACSR2/0_ACSR Seasons=1 Ratings=[400,] normamps=0.1 emergamps=20
New "Line.ln6381855-1" bus1=m1209788.3 bus2=m1209795.3 length=0.07532629 units=km linecode=1PH-xx4_ACSR4_ACSR Seasons=1 Ratings=[400,] normamps=0.1 emergamps=20
New "Line.ln6381845-1" bus1=m1209795.3 bus2=l2936268.3 length=0.06252704 units=km linecode=1PH-xx4_ACSR4_ACSR Seasons=1 Ratings=[400,] normamps=0.1 emergamps=20
New "Line.tpx223655c0" bus1=x2936268c.1.2 bus2=sx2936268c.1.2 linecode=4/0Triplex Seasons=1 Ratings=[400,] normamps=0.1 emergamps=20 length=50 units=ft
New "Line.ln6351519-1" bus1=m1209788 bus2=m1209787 length=0.1072102 units=km linecode=3PH_H-397_ACSR397_ACSR397_ACSR2/0_ACSR Seasons=1 Ratings=[400,] normamps=0.1 emergamps=20
New "Line.ln6261021-1" bus1=m1209787 bus2=l2823611 length=0.1243537 units=km linecode=3PH_H-397_ACSR397_ACSR397_ACSR2/0_ACSR Seasons=1 Ratings=[400,] normamps=0.1 emergamps=20
New "Line.tpx21386877a0" bus1=x2823611a.1.2 bus2=sx2823611a.1.2 linecode=4/0Triplex Seasons=1 Ratings=[400,] normamps=0.1 emergamps=20 length=50 units=ft
New "Line.ln5473440-1" bus1=l2823611 bus2=l3030204 length=0.08348992 units=km linecode=3PH_H-397_ACSR397_ACSR397_ACSR2/0_ACSR Seasons=1 Ratings=[400,] normamps=0.1 emergamps=20
New "Line.tpx52107636a0" bus1=x3030204a.1.2 bus2=sx3030204a.1.2 linecode=4/0Triplex Seasons=1 Ratings=[400,] normamps=0.1 emergamps=20 length=50 units=ft
New "Line.ln5866268-1" bus1=l3030204 bus2=m1186072 length=0.0671996 units=km linecode=3PH_H-397_ACSR397_ACSR397_ACSR2/0_ACSR Seasons=1 Ratings=[400,] normamps=0.1 emergamps=20
New "Line.ln6048634-1" bus1=m1186072 bus2=m1186067 length=0.04217383 units=km linecode=3PH_H-397_ACSR397_ACSR397_ACSR2/0_ACSR Seasons=1 Ratings=[400,] normamps=0.1 emergamps=20
New "Line.ln6504019-5" bus1=m1186067 bus2=m3032980 length=0.05014083 units=km linecode=3PH_H-397_ACSR397_ACSR397_ACSR2/0_ACSR Seasons=1 Ratings=[400,] normamps=0.1 emergamps=20
New "Line.ln6504019-6" bus1=m3032980 bus2=m1186065 length=0.1604099 units=km linecode=3PH_H-397_ACSR397_ACSR397_ACSR2/0_ACSR Seasons=1 Ratings=[400,] normamps=0.1 emergamps=20
New "Line.ln5898194-1" bus1=m1186065 bus2=p829977 length=0.09232326 units=km linecode=3PH_H-2/0_ACSR2/0_ACSR2/0_ACSR4_ACSR Seasons=1 Ratings=[400,] normamps=0.1 emergamps=20
New "Line.ln5655838-1" bus1=p829977 bus2=m1186061 length=0.07476375 units=km linecode=3PH_H-2_ACSR2_ACSR4_ACSR4_ACSR Seasons=1 Ratings=[400,] normamps=0.1 emergamps=20
New "Line.ln5622467-1" bus1=m1186061 bus2=l3139366 length=0.1406544 units=km linecode=3PH_H-2_ACSR2_ACSR2_ACSR2_ACSR Seasons=1 Ratings=[400,] normamps=0.1 emergamps=20
New "Line.tpx226264795a0" bus1=x3139366a.1.2 bus2=sx3139366a.1.2 linecode=4/0Triplex Seasons=1 Ratings=[400,] normamps=0.1 emergamps=20 length=50 units=ft
New "Line.ln5622467-4" bus1=l3139366 bus2=m4362177 length=0.1156061 units=km linecode=3PH_H-2_ACSR2_ACSR2_ACSR2_ACSR Seasons=1 Ratings=[400,] normamps=0.1 emergamps=20
New "Line.ln7167521-1" bus1=m4362177 bus2=m1186052 length=0.06550446 units=km linecode=3PH_H-2_ACSR2_ACSR2_ACSR2_ACSR Seasons=1 Ratings=[400,] normamps=0.1 emergamps=20
New "Line.ln8978752-1" bus1=m1186052 bus2=198-5320 length=0.005839099 units=km linecode=3P_1/0_AXNJ_DB Seasons=1 Ratings=[400,] normamps=0.1 emergamps=20
New "Line.ln8978753-1" bus1=198-5320 bus2=221-311359 length=0.003892028 units=km linecode=3P_1/0_AXNJ_DB Seasons=1 Ratings=[400,] normamps=0.1 emergamps=20
New "Line.ln8978753-2" bus1=221-311359 bus2=l3234149 length=0.04818054 units=km linecode=3P_1/0_AXNJ_DB Seasons=1 Ratings=[400,] normamps=0.1 emergamps=20
New "Line.tpx227944551c0" bus1=x3234149c.1.2 bus2=sx3234149c.1.2 linecode=750_Triplex Seasons=1 Ratings=[400,] normamps=0.1 emergamps=20 length=50 units=ft
New "Line.tpx227944551b0" bus1=x3234149b.1.2 bus2=sx3234149b.1.2 linecode=750_Triplex Seasons=1 Ratings=[400,] normamps=0.1 emergamps=20 length=50 units=ft
New "Line.tpx227944551a0" bus1=x3234149a.1.2 bus2=sx3234149a.1.2 linecode=750_Triplex Seasons=1 Ratings=[400,] normamps=0.1 emergamps=20 length=50 units=ft
New "Line.ln6230800-1" bus1=m1186061.2 bus2=l2861223.2 length=0.03647083 units=km linecode=1PH-x4_ACSRx4_ACSR Seasons=1 Ratings=[400,] normamps=0.1 emergamps=20
New "Line.tpx260461b0" bus1=x2861223b.1.2 bus2=sx2861223b.1.2 linecode=4/0Triplex Seasons=1 Ratings=[400,] normamps=0.1 emergamps=20 length=50 units=ft
New "Line.ln5927383-1" bus1=m1186065 bus2=m1186064 length=0.06908986 units=km linecode=3PH_H-397_ACSR397_ACSR397_ACSR2/0_ACSR Seasons=1 Ratings=[400,] normamps=0.1 emergamps=20
New "Line.ln5654480-1" bus1=m1186064 bus2=m1186063 length=0.005146385 units=km linecode=3PH_H-397_ACSR397_ACSR397_ACSR2/0_ACSR Seasons=1 Ratings=[400,] normamps=0.1 emergamps=20
New "Line.ln6412356-1" bus1=m1186063 bus2=m1209776 length=0.06107366 units=km linecode=3PH_H-397_ACSR397_ACSR397_ACSR2/0_ACSR Seasons=1 Ratings=[400,] normamps=0.1 emergamps=20
New "Line.ln5533797-1" bus1=m1209776 bus2=m1209775 length=0.06647886 units=km linecode=3PH_H-397_ACSR397_ACSR397_ACSR2/0_ACSR Seasons=1 Ratings=[400,] normamps=0.1 emergamps=20
New "Line.ln6078775-1" bus1=m1209775 bus2=m1209774 length=0.1620705 units=km linecode=3PH_H-397_ACSR397_ACSR397_ACSR2/0_ACSR Seasons=1 Ratings=[400,] normamps=0.1 emergamps=20
New "Line.ln8940662-1" bus1=m1209774 bus2=221-242079 length=0.004334939 units=km linecode=3P_1/0_AXNJ_DB Seasons=1 Ratings=[400,] normamps=0.1 emergamps=20
New "Line.ln8940663-1" bus1=221-242079 bus2=l3011293 length=0.05674351 units=km linecode=3P_1/0_AXNJ_DB Seasons=1 Ratings=[400,] normamps=0.1 emergamps=20
New "Line.tpx28129466c0" bus1=x3011293c.1.2 bus2=sx3011293c.1.2 linecode=4/0Triplex Seasons=1 Ratings=[400,] normamps=0.1 emergamps=20 length=50 units=ft
New "Line.tpx28129466b0" bus1=x3011293b.1.2 bus2=sx3011293b.1.2 linecode=4/0Triplex Seasons=1 Ratings=[400,] normamps=0.1 emergamps=20 length=50 units=ft
New "Line.tpx28129466a0" bus1=x3011293a.1.2 bus2=sx3011293a.1.2 linecode=4/0Triplex Seasons=1 Ratings=[400,] normamps=0.1 emergamps=20 length=50 units=ft
New "Line.ln6381858-1" bus1=m1209774 bus2=l3123509 length=0.0625314 units=km linecode=3PH_H-397_ACSR397_ACSR397_ACSR2/0_ACSR Seasons=1 Ratings=[400,] normamps=0.1 emergamps=20
New "Line.tpx28129923c0" bus1=x3123509c.1.2 bus2=sx3123509c.1.2 linecode=4/0Triplex Seasons=1 Ratings=[400,] normamps=0.1 emergamps=20 length=50 units=ft
New "Line.ln6078776-1" bus1=l3123509 bus2=m1209772 length=0.09116051 units=km linecode=3PH_H-397_ACSR397_ACSR397_ACSR2/0_ACSR Seasons=1 Ratings=[400,] normamps=0.1 emergamps=20
New "Line.ln5542283-1" bus1=m1209772 bus2=e192258 length=0.1743357 units=km linecode=3PH_H-397_ACSR397_ACSR397_ACSR2/0_ACSR Seasons=1 Ratings=[400,] normamps=0.1 emergamps=20
New "Line.ln6322801-1" bus1=m1186063.2 bus2=p829979.2 length=0.003916089 units=km linecode=1PH-x2_ACSRx2_ACSR Seasons=1 Ratings=[400,] normamps=0.1 emergamps=20
New "Line.ln5746706-2" bus1=p829979.2 bus2=m3036172.2 length=0.03256745 units=km linecode=1PH-x2_ACSRx2_ACSR Seasons=1 Ratings=[400,] normamps=0.1 emergamps=20
New "Line.ln6321419-2" bus1=m3036172.2 bus2=m1209763.2 length=0.1225325 units=km linecode=1PH-x4_ACSRx4_ACSR Seasons=1 Ratings=[400,] normamps=0.1 emergamps=20
New "Line.ln6048635-1" bus1=m1209763.2 bus2=l2936275.2 length=0.1051202 units=km linecode=1PH-x4_ACSRx4_ACSR Seasons=1 Ratings=[400,] normamps=0.1 emergamps=20
New "Line.tpx157715b0" bus1=x2936275b.1.2 bus2=sx2936275b.1.2 linecode=4/0Triplex Seasons=1 Ratings=[400,] normamps=0.1 emergamps=20 length=50 units=ft
New "Line.ln6048632-1" bus1=l2936275.2 bus2=l3179674.2 length=0.09079162 units=km linecode=1PH-x4_ACSRx4_ACSR Seasons=1 Ratings=[400,] normamps=0.1 emergamps=20
New "Line.tpx157716b0" bus1=x3179674b.1.2 bus2=sx3179674b.1.2 linecode=4/0Triplex Seasons=1 Ratings=[400,] normamps=0.1 emergamps=20 length=50 units=ft
New "Line.ln6381854-1" bus1=l3179674.2 bus2=m1209758.2 length=0.119904 units=km linecode=1PH-x2_ACSRx2_ACSR Seasons=1 Ratings=[400,] normamps=0.1 emergamps=20
New "Line.ln5624380-1" bus1=m1209758.2 bus2=m1209753.2 length=0.121091 units=km linecode=1PH-x2_ACSRx2_ACSR Seasons=1 Ratings=[400,] normamps=0.1 emergamps=20
New "Line.ln6351518-1" bus1=m1209753.2 bus2=m1209752.2 length=0.1547354 units=km linecode=1PH-x2_ACSRx2_ACSR Seasons=1 Ratings=[400,] normamps=0.1 emergamps=20
New "Line.ln6200528-1" bus1=m1209752.2 bus2=m1209751.2 length=0.1574574 units=km linecode=1PH-x2_ACSRx2_ACSR Seasons=1 Ratings=[400,] normamps=0.1 emergamps=20
New "Line.ln6018333-1" bus1=m1209751.2 bus2=m1209750.2 length=0.003850069 units=km linecode=1PH-x2_ACSRx2_ACSR Seasons=1 Ratings=[400,] normamps=0.1 emergamps=20
New "Line.ln5987956-1" bus1=m1209750.2 bus2=l3086075.2 length=0.1153489 units=km linecode=1PH-x2_ACSRx2_ACSR Seasons=1 Ratings=[400,] normamps=0.1 emergamps=20
New "Line.tpx260463b0" bus1=x3086075b.1.2 bus2=sx3086075b.1.2 linecode=4/0Triplex Seasons=1 Ratings=[400,] normamps=0.1 emergamps=20 length=50 units=ft
New "Line.ln6351512-1" bus1=m1209750.2 bus2=m1209749.2 length=0.008525901 units=km linecode=1PH-x2_ACSRx2_ACSR Seasons=1 Ratings=[400,] normamps=0.1 emergamps=20
New "Line.ln5896826-1" bus1=m1209749.2 bus2=l2748840.2 length=0.2031814 units=km linecode=1PH-x2_ACSRx2_ACSR Seasons=1 Ratings=[400,] normamps=0.1 emergamps=20
New "Line.tpx157717b0" bus1=x2748840b.1.2 bus2=sx2748840b.1.2 linecode=4/0Triplex Seasons=1 Ratings=[400,] normamps=0.1 emergamps=20 length=50 units=ft
New "Line.ln5866267-1" bus1=m1209753.2 bus2=m1209748.2 length=0.2060081 units=km linecode=1PH-x2_ACSRx2_ACSR Seasons=1 Ratings=[400,] normamps=0.1 emergamps=20
New "Line.ln6230793-1" bus1=m1209748.2 bus2=l3142099.2 length=0.08026709 units=km linecode=1PH-x2_ACSRx2_ACSR Seasons=1 Ratings=[400,] normamps=0.1 emergamps=20
New "Line.tpx157718b0" bus1=x3142099b.1.2 bus2=sx3142099b.1.2 linecode=4/0Triplex Seasons=1 Ratings=[400,] normamps=0.1 emergamps=20 length=50 units=ft
New "Line.ln6505952-4" bus1=m3036172.2 bus2=l3086079.2 length=0.002703266 units=km linecode=1PH-x4_ACSRx4_ACSR Seasons=1 Ratings=[400,] normamps=0.1 emergamps=20
New "Line.tpx260457b0" bus1=x3086079b.1.2 bus2=sx3086079b.1.2 linecode=4/0Triplex Seasons=1 Ratings=[400,] normamps=0.1 emergamps=20 length=50 units=ft
New "Line.ln6506305-2" bus1=l3086079.2 bus2=l2936276.2 length=0.07310531 units=km linecode=1PH-x4_ACSRx4_ACSR Seasons=1 Ratings=[400,] normamps=0.1 emergamps=20
New "Line.tpx260458b0" bus1=x2936276b.1.2 bus2=sx2936276b.1.2 linecode=4/0Triplex Seasons=1 Ratings=[400,] normamps=0.1 emergamps=20 length=50 units=ft
New "Line.ln6504020-2" bus1=m3032980 bus2=m3032977 length=0.2574444 units=km linecode=3PH_H-397_ACSR397_ACSR397_ACSR2/0_ACSR Seasons=1 Ratings=[400,] normamps=0.1 emergamps=20
New "Line.ln6504018-1" bus1=m3032977 bus2=m1166366 length=0.3076146 units=km linecode=3PH_H-397_ACSR397_ACSR397_ACSR2/0_ACSR Seasons=1 Ratings=[400,] normamps=0.1 emergamps=20
New "Line.ln5957526-1" bus1=m1166366 bus2=m1166368 length=0.04116818 units=km linecode=3PH_H-397_ACSR397_ACSR397_ACSR2/0_ACSR Seasons=1 Ratings=[400,] normamps=0.1 emergamps=20
New "Line.ln5715052-1" bus1=m1166368 bus2=l2973833 length=0.1050882 units=km linecode=3PH_H-397_ACSR397_ACSR397_ACSR2/0_ACSR Seasons=1 Ratings=[400,] normamps=0.1 emergamps=20
New "Line.tpx260630b0" bus1=x2973833b.1.2 bus2=sx2973833b.1.2 linecode=4/0Triplex Seasons=1 Ratings=[400,] normamps=0.1 emergamps=20 length=50 units=ft
New "Line.ln5866308-1" bus1=l2973833 bus2=m1166373 length=0.04140121 units=km linecode=3PH_H-397_ACSR397_ACSR397_ACSR2/0_ACSR Seasons=1 Ratings=[400,] normamps=0.1 emergamps=20
New "Line.ln5594243-1" bus1=m1166373.1 bus2=m1166369.1 length=0.0102624 units=km linecode=1PH-4_WPALxx4_WPAL Seasons=1 Ratings=[400,] normamps=0.1 emergamps=20
New "Line.ln6049964-1" bus1=m1166369.1 bus2=p829978.1 length=0.004170601 units=km linecode=1PH-4_WPALxx4_WPAL Seasons=1 Ratings=[400,] normamps=0.1 emergamps=20
New "Line.ln5989332-1" bus1=p829978.1 bus2=l2992656.1 length=0.05544727 units=km linecode=1PH-4_WPALxx4_WPAL Seasons=1 Ratings=[400,] normamps=0.1 emergamps=20
New "Line.tpx260627a0" bus1=x2992656a.1.2 bus2=sx2992656a.1.2 linecode=4/0Triplex Seasons=1 Ratings=[400,] normamps=0.1 emergamps=20 length=50 units=ft
New "Line.ln5533838-1" bus1=l2992656.1 bus2=m1166356.1 length=0.05948293 units=km linecode=1PH-4_WPALxx4_WPAL Seasons=1 Ratings=[400,] normamps=0.1 emergamps=20
New "Line.ln6258530-1" bus1=m1166356.1 bus2=l2727019.1 length=0.06132285 units=km linecode=1PH-4_ACSRxx4_ACSR Seasons=1 Ratings=[400,] normamps=0.1 emergamps=20
New "Line.ln5715051-1" bus1=m1166356.1 bus2=l3104856.1 length=0.08129971 units=km linecode=1PH-4_ACSRxx4_ACSR Seasons=1 Ratings=[400,] normamps=0.1 emergamps=20
New "Line.tpx260467a0" bus1=x3104856a.1.2 bus2=sx3104856a.1.2 linecode=4/0Triplex Seasons=1 Ratings=[400,] normamps=0.1 emergamps=20 length=50 units=ft
New "Line.ln6078810-1" bus1=m1166356.1 bus2=l2730187.1 length=0.05094896 units=km linecode=1PH-4_ACSRxx4_ACSR Seasons=1 Ratings=[400,] normamps=0.1 emergamps=20
New "Line.tpx260464a0" bus1=x2730187a.1.2 bus2=sx2730187a.1.2 linecode=4/0Triplex Seasons=1 Ratings=[400,] normamps=0.1 emergamps=20 length=50 units=ft
New "Line.ln6046058-1" bus1=m1166369.1 bus2=l2839305.1 length=0.05958135 units=km linecode=1PH-4_WPALxx4_WPAL Seasons=1 Ratings=[400,] normamps=0.1 emergamps=20
New "Line.tpx28150292a0" bus1=x2839305a.1.2 bus2=sx2839305a.1.2 linecode=4/0Triplex Seasons=1 Ratings=[400,] normamps=0.1 emergamps=20 length=50 units=ft
New "Line.ln5712498-1" bus1=l2839305.1 bus2=m1166361.1 length=0.1009109 units=km linecode=1PH-4_WPALxx4_WPAL Seasons=1 Ratings=[400,] normamps=0.1 emergamps=20
New "Line.ln6015890-1" bus1=m1166361.1 bus2=l2989600.1 length=0.01681947 units=km linecode=1PH-4_WPALxx4_WPAL Seasons=1 Ratings=[400,] normamps=0.1 emergamps=20
New "Line.ln5591813-1" bus1=l2989600.1 bus2=m1166362.1 length=0.09940193 units=km linecode=1PH-4_ACSRxx4_ACSR Seasons=1 Ratings=[400,] normamps=0.1 emergamps=20
New "Line.ln5563943-1" bus1=m1166362.1 bus2=l2898522.1 length=0.06895167 units=km linecode=1PH-4_ACSRxx4_ACSR Seasons=1 Ratings=[400,] normamps=0.1 emergamps=20
New "Line.tpx260648a0" bus1=x2898522a.1.2 bus2=sx2898522a.1.2 linecode=4/0Triplex Seasons=1 Ratings=[400,] normamps=0.1 emergamps=20 length=50 units=ft
New "Line.ln6078774-1" bus1=m1166362.1 bus2=m1166355.1 length=0.1033009 units=km linecode=1PH-4_ACSRxx4_ACSR Seasons=1 Ratings=[400,] normamps=0.1 emergamps=20
New "Line.ln5624381-1" bus1=m1166355.1 bus2=l2805035.1 length=0.06526174 units=km linecode=1PH-4_ACSRxx4_ACSR Seasons=1 Ratings=[400,] normamps=0.1 emergamps=20
New "Line.ln6015891-1" bus1=m1166355.1 bus2=l2858200.1 length=0.1120121 units=km linecode=1PH-4_ACSRxx4_ACSR Seasons=1 Ratings=[400,] normamps=0.1 emergamps=20
New "Line.ln6198041-1" bus1=m1166361.1 bus2=l2692661.1 length=0.06907719 units=km linecode=1PH-4_WPALxx4_WPAL Seasons=1 Ratings=[400,] normamps=0.1 emergamps=20
New "Line.tpx260650a0" bus1=x2692661a.1.2 bus2=sx2692661a.1.2 linecode=4/0Triplex Seasons=1 Ratings=[400,] normamps=0.1 emergamps=20 length=50 units=ft
New "Line.ln6412354-1" bus1=m1166373 bus2=m1166374 length=0.009347399 units=km linecode=3PH_H-397_ACSR397_ACSR397_ACSR2/0_ACSR Seasons=1 Ratings=[400,] normamps=0.1 emergamps=20
New "Line.ln6412355-1" bus1=m1166374 bus2=l2786266 length=0.06764679 units=km linecode=3PH_H-397_ACSR397_ACSR397_ACSR2/0_ACSR Seasons=1 Ratings=[400,] normamps=0.1 emergamps=20
New "Line.tpx260631a0" bus1=x2786266a.1.2 bus2=sx2786266a.1.2 linecode=4/0Triplex Seasons=1 Ratings=[400,] normamps=0.1 emergamps=20 length=50 units=ft
New "Line.ln5745355-1" bus1=l2786266 bus2=m1166375 length=0.03456459 units=km linecode=3PH_H-397_ACSR397_ACSR397_ACSR2/0_ACSR Seasons=1 Ratings=[400,] normamps=0.1 emergamps=20
New "Line.ln5896834-1" bus1=m1166375 bus2=l2842383 length=0.09683365 units=km linecode=3PH_H-397_ACSR397_ACSR397_ACSR2/0_ACSR Seasons=1 Ratings=[400,] normamps=0.1 emergamps=20
New "Line.tpx260634a0" bus1=x2842383a.1.2 bus2=sx2842383a.1.2 linecode=4/0Triplex Seasons=1 Ratings=[400,] normamps=0.1 emergamps=20 length=50 units=ft
New "Line.ln6023352-1" bus1=l2842383 bus2=d6023352-1_int length=0.05295857 units=km linecode=3PH_H-397_ACSR397_ACSR397_ACSR2/0_ACSR Seasons=1 Ratings=[400,] normamps=0.1 emergamps=20
...
